/*--------------------------------*- C++ -*----------------------------------*\
| =========                 |                                                 |
| \\      /  F ield         | OpenFOAM: The Open Source CFD Toolbox           |
|  \\    /   O peration     | Version:  v2606                                 |
|   \\  /    A nd           | Website:  www.openfoam.com                      |
|    \\/     M anipulation  |                                                 |
\*---------------------------------------------------------------------------*/
FoamFile
{
    version     2.0;
    format      ascii;
    class       dictionary;
    object      radiationProperties;
}
// * * * * * * * * * * * * * * * * * * * * * * * * * * * * * * * * * * * * * //

radiation on;

radiationModel  P1;

P1Coeffs
{
    C               C [0 0 0 0 0 0 0] 0;
}

// Number of flow iterations per radiation iteration
solverFreq 1;

absorptionEmissionModel greyMeanAbsorptionEmission;

greyMeanAbsorptionEmissionCoeffs
{
    lookUpTableFileName      none;

    EhrrCoeff                0.0;


    H2O
    {
        Tcommon         200;
        invTemp         true;
        Tlow            200;
        Thigh           2500;

        loTcoeffs
        (
            0
            0
            0
            0
            0
            0
        );
        hiTcoeffs
        (
            -0.23093
            -1.12390e3
             9.4153e6
            -2.99885e9
             0.51382e12
            -1.868e10
        );
    }


    O2
    {
        Tcommon         200;
        invTemp         true;
        Tlow            200;
        Thigh           2500;

        loTcoeffs
        (
            0
            0
            0
            0
            0
            0
        );
        hiTcoeffs
        (
            0.1
            0
            0
            0
            0
            0
        );
    }


    N2
    {
        Tcommon         200;
        invTemp         true;
        Tlow            200;
        Thigh           2500;

        loTcoeffs
        (
            0
            0
            0
            0
            0
            0
        );
        hiTcoeffs
        (
            0.1
            0
            0
            0
            0
            0
        );
    }
}

scatterModel    none;

sootModel       none;

transmissivityModel none;


// ************************************************************************* //
